V1 N001 0 2
R1 N001 N002 10k
D1 N002 0 D
.tran 0 1ms 0 0.1us
.end