V1 N001 0 SINE(2 1 1000)
R1 N001 0 10k
D1 N001 0 D
.tran 0 1ms 0 0.1us
.end