V1 N002 N004 1
V2 N002 N001 2
V3 N002 N003 3
R1 N002 N004 1k
R2 N001 0 1k
R3 N003 N004 1k
R4 N004 0 1k
.tran 0 10ms 0 1us
.end