V1 N001 0 SINE(2 1 1000)
R1 N001 N002 10k
C1 N002 0 1n
L1 N002 0 1m
.tran 0 10ms 0 1us
.end