V1 N001 0 1
R1 N001 N002 10k
I1 N002 N003 2m
R2 N003 0 10k
R3 N002 0 10k
.tran 0 1ms 0 0.1us
.end