V1 N001 0 2V
V2 N003 N002 1V
R1 N001 N002 10k
R2 N003 0 10k
R3 N002 0 10k
.tran 0 10ms 0 1us
.end